{"result": {"id": "chatcmpl-c99991a5-2244-4b23-8e19-f2365e2c99d4", "choices": [{"finish_reason": "stop", "index": 0, "logprobs": null, "message": {"content": "{\n    \"title\": \"VTK Readers Community in gen_VTKReaders.py\",\n    \"summary\": \"The community consists of over 60 VTK (Visualization Toolkit) reader software components, all defined or implemented within the centralized module 'generated_nodes/gen_VTKReaders.py'. This module serves as a critical architectural component for data ingestion, enabling the parsing and loading of diverse scientific, engineering, medical, and imaging data formats into VTK-compatible structures. Each reader is specialized for a specific file type or data structure (e.g., HDF, Tecplot, NIFTI, STL, GeoJSON), demonstrating the system’s broad interoperability and modularity. All reader entities are directly linked to the gen_VTKReaders.py module, establishing it as the central hub of this technical software community.\",\n    \"rating\": 3.0,\n    \"rating_explanation\": \"The impact severity rating is low to moderate, reflecting the technical importance of this software module in scientific visualization workflows but the absence of legal, reputational, or security-related risks in the provided data.\",\n    \"findings\": [\n        {\n            \"summary\": \"Centralized architecture in gen_VTKReaders.py\",\n            \"explanation\": \"The module 'generated_nodes/gen_VTKReaders.py' functions as the central architectural hub for a wide array of VTK reader classes. It is described as a key component in the software’s data ingestion pipeline, responsible for defining or auto-generating reader nodes that support numerous data formats including HDR, IOSS, ISI, Tecplot, NIFTI, and more. This centralized design promotes modularity and extensibility by abstracting format-specific reading logic into standardized node interfaces. The high degree (64) of this entity and its direct relationship with all listed reader components underscores its pivotal role in the system’s data handling infrastructure [Data: Entities (447); Relationships (453, 454, 455, 456, 457, +more)].\"\n        },\n        {\n            \"summary\": \"Diverse support for scientific and engineering data formats\",\n            \"explanation\": \"The VTK readers implemented in gen_VTKReaders.py collectively support an extensive range of scientific and engineering data formats. These include simulation outputs (e.g., TRUCHAS, LS-DYNA, Exodus II), medical imaging (e.g., NIFTI, GE Signa), geospatial data (e.g., GeoJSON, SegY), molecular structures (e.g., PDB), and common image formats (e.g., BMP, JPEG, TIFF). This breadth of support enables the software to serve a wide variety of domains—from computational fluid dynamics to biomedical imaging—making it a versatile tool in scientific visualization. For instance, VTKGESignaReader handles medical metadata like patient name and modality, while VTKLSDynaReader processes simulation outputs with time steps and mesh deformation settings [Data: Entities (456, 474, 479, 481, 494); Relationships (462, 474, 480, 483, 496, +more)].\"\n        },\n        {\n            \"summary\": \"Specialized readers for hierarchical and parallel data\",\n            \"explanation\": \"The community includes advanced readers designed specifically for hierarchical and parallel data structures, which are essential for large-scale scientific simulations. Examples include VTKXMLHierarchicalDataReader, VTKXMLHyperTreeGridReader, and their parallel counterparts such as VTKXMLPHYPERTREEGRIDREADER and VTKXMLPIMAGEDATAREADER. These components support multi-resolution, time-varying, and distributed datasets commonly used in high-performance computing environments. Notably, VTKXMLPHYPERTREEGRIDREADER is described as potentially incomplete or placeholder-like, suggesting ongoing development or integration challenges in handling parallel hyper tree grid data [Data: Entities (504, 505, 508, 509); Relationships (506, 507, 511, 512, +more)].\"\n        },\n        {\n            \"summary\": \"Medical and imaging data handling capabilities\",\n            \"explanation\": \"Several VTK readers are tailored for medical and imaging applications, reflecting the system’s utility in healthcare and diagnostic visualization. VTKGESignaReader supports properties like patient name, patient ID, and modality, typical of medical imaging workflows. Similarly, VTKNIFTIImageReader is designed for NIFTI files, a standard in neuroimaging, with configurable properties for file structure and image dimensions. Other image-focused readers such as VTKJPEGReader, VTKTIFFReader, and VTKBMPReader provide configurable options for origin, spacing, and byte order, enabling precise control over image data ingestion [Data: Entities (456, 473, 479, 494); Relationships (462, 474, 480, 496)].\"\n        },\n        {\n            \"summary\": \"Support for graph, tree, and structured data formats\",\n            \"explanation\": \"The reader set includes specialized components for non-traditional data structures such as graphs and trees. VTKXGMLReader handles XGML (eXtensible Graph Markup and Modeling Language) files, while VTKMultiNewickTreeReader parses Newick tree format files used in phylogenetics. Additionally, readers like VTKStructuredGridReaderType and VTKStructuredPointsReaderType support structured scientific datasets with configurable scalar, vector, and tensor fields. This demonstrates the system’s adaptability beyond volumetric or image data to include relational and hierarchical information structures [Data: Entities (501, 478, 491, 492); Relationships (503, 479, 493, 494)].\"\n        },\n        {\n            \"summary\": \"Evidence of automated or programmatic code generation\",\n            \"explanation\": \"The module 'generated_nodes/gen_VTKReaders.py' appears to be auto-generated or programmatically constructed, as indicated by its location in a 'generated_nodes' directory and its role in defining numerous reader classes through standardized patterns. This approach reduces manual implementation overhead and ensures consistency across reader interfaces. The presence of classes with similar naming conventions (e.g., VTKImageReaderType vs. VTKImageReader2) and the description of VTKXMLPHYPERTREEGRIDREADER as possibly incomplete further suggest that this module is part of a code generation pipeline rather than hand-written source code [Data: Entities (447, 508); Relationships (506)].\"\n        },\n        {\n            \"summary\": \"Comprehensive file I/O and configuration options\",\n            \"explanation\": \"Most VTK reader components expose configurable properties for file handling, data interpretation, and object naming. Common properties include m_FileName and m_ObjectName, while specialized readers offer additional controls—such as byte order, field width, delimiter, time steps, and scalar component settings. For example, VTKFixedWidthTextReader includes options for headers and whitespace stripping, and VTKIOSSReaderType supports displacement and global field configurations. This level of configurability enhances the robustness and flexibility of the data ingestion pipeline across diverse input scenarios [Data: Entities (454, 469, 477, 496); Relationships (460, 470, 478, 498)].\"\n        }\n    ]\n}", "refusal": null, "role": "assistant", "annotations": null, "audio": null, "function_call": null, "tool_calls": null}}], "created": 1761484715, "model": "qwen3-max", "object": "chat.completion", "service_tier": null, "system_fingerprint": null, "usage": {"completion_tokens": 1579, "prompt_tokens": 8771, "total_tokens": 10350, "completion_tokens_details": null, "prompt_tokens_details": {"audio_tokens": null, "cached_tokens": 0}}}, "input": {"messages": [{"content": "\nYou are an AI assistant that helps a human analyst to perform general information discovery. Information discovery is the process of identifying and assessing relevant information associated with certain entities (e.g., organizations and individuals) within a network.\n\n# Goal\nWrite a comprehensive report of a community, given a list of entities that belong to the community as well as their relationships and optional associated claims. The report will be used to inform decision-makers about information associated with the community and their potential impact. The content of this report includes an overview of the community's key entities, their legal compliance, technical capabilities, reputation, and noteworthy claims.\n\n# Report Structure\n\nThe report should include the following sections:\n\n- TITLE: community's name that represents its key entities - title should be short but specific. When possible, include representative named entities in the title.\n- SUMMARY: An executive summary of the community's overall structure, how its entities are related to each other, and significant information associated with its entities.\n- IMPACT SEVERITY RATING: a float score between 0-10 that represents the severity of IMPACT posed by entities within the community.  IMPACT is the scored importance of a community.\n- RATING EXPLANATION: Give a single sentence explanation of the IMPACT severity rating.\n- DETAILED FINDINGS: A list of 5-10 key insights about the community. Each insight should have a short summary followed by multiple paragraphs of explanatory text grounded according to the grounding rules below. Be comprehensive.\n\nReturn output as a well-formed JSON-formatted string with the following format:\n    {\n        \"title\": <report_title>,\n        \"summary\": <executive_summary>,\n        \"rating\": <impact_severity_rating>,\n        \"rating_explanation\": <rating_explanation>,\n        \"findings\": [\n            {\n                \"summary\":<insight_1_summary>,\n                \"explanation\": <insight_1_explanation>\n            },\n            {\n                \"summary\":<insight_2_summary>,\n                \"explanation\": <insight_2_explanation>\n            }\n        ]\n    }\n\n# Grounding Rules\n\nPoints supported by data should list their data references as follows:\n\n\"This is an example sentence supported by multiple data references [Data: <dataset name> (record ids); <dataset name> (record ids)].\"\n\nDo not list more than 5 record ids in a single reference. Instead, list the top 5 most relevant record ids and add \"+more\" to indicate that there are more.\n\nFor example:\n\"Person X is the owner of Company Y and subject to many allegations of wrongdoing [Data: Reports (1), Entities (5, 7); Relationships (23); Claims (7, 2, 34, 64, 46, +more)].\"\n\nwhere 1, 5, 7, 23, 2, 34, 46, and 64 represent the id (not the index) of the relevant data record.\n\nDo not include information where the supporting evidence for it is not provided.\n\nLimit the total report length to 2000 words.\n\n# Example Input\n-----------\nText:\n\nEntities\n\nid,entity,description\n5,VERDANT OASIS PLAZA,Verdant Oasis Plaza is the location of the Unity March\n6,HARMONY ASSEMBLY,Harmony Assembly is an organization that is holding a march at Verdant Oasis Plaza\n\nRelationships\n\nid,source,target,description\n37,VERDANT OASIS PLAZA,UNITY MARCH,Verdant Oasis Plaza is the location of the Unity March\n38,VERDANT OASIS PLAZA,HARMONY ASSEMBLY,Harmony Assembly is holding a march at Verdant Oasis Plaza\n39,VERDANT OASIS PLAZA,UNITY MARCH,The Unity March is taking place at Verdant Oasis Plaza\n40,VERDANT OASIS PLAZA,TRIBUNE SPOTLIGHT,Tribune Spotlight is reporting on the Unity march taking place at Verdant Oasis Plaza\n41,VERDANT OASIS PLAZA,BAILEY ASADI,Bailey Asadi is speaking at Verdant Oasis Plaza about the march\n43,HARMONY ASSEMBLY,UNITY MARCH,Harmony Assembly is organizing the Unity March\n\nOutput:\n{\n    \"title\": \"Verdant Oasis Plaza and Unity March\",\n    \"summary\": \"The community revolves around the Verdant Oasis Plaza, which is the location of the Unity March. The plaza has relationships with the Harmony Assembly, Unity March, and Tribune Spotlight, all of which are associated with the march event.\",\n    \"rating\": 5.0,\n    \"rating_explanation\": \"The impact severity rating is moderate due to the potential for unrest or conflict during the Unity March.\",\n    \"findings\": [\n        {\n            \"summary\": \"Verdant Oasis Plaza as the central location\",\n            \"explanation\": \"Verdant Oasis Plaza is the central entity in this community, serving as the location for the Unity March. This plaza is the common link between all other entities, suggesting its significance in the community. The plaza's association with the march could potentially lead to issues such as public disorder or conflict, depending on the nature of the march and the reactions it provokes. [Data: Entities (5), Relationships (37, 38, 39, 40, 41,+more)]\"\n        },\n        {\n            \"summary\": \"Harmony Assembly's role in the community\",\n            \"explanation\": \"Harmony Assembly is another key entity in this community, being the organizer of the march at Verdant Oasis Plaza. The nature of Harmony Assembly and its march could be a potential source of threat, depending on their objectives and the reactions they provoke. The relationship between Harmony Assembly and the plaza is crucial in understanding the dynamics of this community. [Data: Entities(6), Relationships (38, 43)]\"\n        },\n        {\n            \"summary\": \"Unity March as a significant event\",\n            \"explanation\": \"The Unity March is a significant event taking place at Verdant Oasis Plaza. This event is a key factor in the community's dynamics and could be a potential source of threat, depending on the nature of the march and the reactions it provokes. The relationship between the march and the plaza is crucial in understanding the dynamics of this community. [Data: Relationships (39)]\"\n        },\n        {\n            \"summary\": \"Role of Tribune Spotlight\",\n            \"explanation\": \"Tribune Spotlight is reporting on the Unity March taking place in Verdant Oasis Plaza. This suggests that the event has attracted media attention, which could amplify its impact on the community. The role of Tribune Spotlight could be significant in shaping public perception of the event and the entities involved. [Data: Relationships (40)]\"\n        }\n    ]\n}\n\n\n# Real Data\n\nUse the following text for your answer. Do not make anything up in your answer.\n\nText:\n-----Entities-----\nhuman_readable_id,title,description,degree\n441,VTKAMREXGRIDREADER,VTKAMReXGridReader is a software component defined in the module generated_nodes/gen_VTKReaders.py with properties related to file and object handling for grid data,1\n447,GENERATED_NODES/GEN_VTKREADERS.PY,\"GENERATED_NODES/GEN_VTKREADERS.PY is a file path and software module location within a codebase that serves as a centralized source for the implementation and definition of numerous VTK (Visualization Toolkit) reader classes. This module contains auto-generated or programmatically defined reader node types designed to support a wide variety of data formats and simulation outputs. The VTK readers implemented in this file include, but are not limited to: HDR, IOSS, ISI, and Image readers; VTKFacetReader, VTKFixedWidthTextReader, VTKGAMBITReader, VTKGESignaReader, and VTKGLTFReader; TIFF, TRUCHAS, Table, Tecplot, and TecplotTable readers; VTKGraphReader, VTKH5PartReader, VTKH5RageReader, VTKHDFReader, and VTKHDRReader; vtkOpenFOAMReader, vtkPChacoReader, vtkPDBReader, vtkPDataSetReader, and vtkPExodusIIReader; as well as VTKVolume16Reader and VTKWindBladeReader. These classes enable the software system to parse and load diverse scientific and engineering data formats into VTK-compatible structures for visualization and analysis. The file is treated as a key architectural component in the software’s data ingestion pipeline, functioning as a digital reference point where VTK reader node definitions are either auto-generated or manually implemented to ensure compatibility with the broader visualization framework. Its role is critical in abstracting format-specific reading logic into standardized node interfaces, thereby facilitating modularity and extensibility within the system.\",64\n442,VTKAMREXPARTICLESREADER,VTKAMReXParticlesReader is a software component defined in the module generated_nodes/gen_VTKReaders.py used for reading particle data with configurable particle type and plot file name,1\n443,VTKAVSUCDREADER,VTKAVSucdReader is a software component in generated_nodes/gen_VTKReaders.py for reading AVS UCD files with support for binary files and byte order configuration,1\n444,VTKARRAYDATAREADER,VTKArrayDataReader is a software component in generated_nodes/gen_VTKReaders.py capable of reading array data either from a file or an input string,1\n445,VTKARRAYREADER,VTKArrayReader is a software component in generated_nodes/gen_VTKReaders.py that reads array data from either a file or an input string,1\n446,VTKBMPREADER,VTKBMPReader is a software component in generated_nodes/gen_VTKReaders.py designed to read BMP image files with various configurable properties for file handling and data interpretation,1\n453,VTKFACETREADER,VTKFacetReader is a software component defined in the module generated_nodes/gen_VTKReaders.py with properties such as m_FileName and m_ObjectName,1\n454,VTKFIXEDWIDTHTEXTREADER,\"VTKFixedWidthTextReader is a software component defined in the module generated_nodes/gen_VTKReaders.py with properties including m_HaveHeaders, m_StripWhiteSpace, m_FileName, m_ObjectName, and m_FieldWidth\",1\n455,VTKGAMBITREADER,VTKGAMBITReader is a software component defined in the module generated_nodes/gen_VTKReaders.py with properties m_FileName and m_ObjectName,1\n456,VTKGESIGNAREADER,\"VTKGESignaReader is a software component defined in the module generated_nodes/gen_VTKReaders.py with extensive properties related to medical imaging data such as m_PatientName, m_PatientID, m_Modality, and image metadata\",1\n457,VTKGLTFREADER,\"VTKGLTFReader is a software component defined in the module generated_nodes/gen_VTKReaders.py with properties like m_ApplyDeformationsToGeometry, m_FileName, m_ObjectName, m_CurrentScene, and m_FrameRate\",1\n458,VTKGAUSSIANCUBEREADER,\"A software component or class in the VTK (Visualization Toolkit) library used for reading Gaussian cube files, defined in the module generated_nodes/gen_VTKReaders.py\",1\n459,VTKGAUSSIANCUBEREADER2,\"A second version or variant of the VTK Gaussian cube file reader in the VTK library, also defined in generated_nodes/gen_VTKReaders.py\",1\n460,VTKGENERICDATAOBJECTREADER,\"A VTK reader class capable of reading generic data objects with support for various data types such as scalars, vectors, tensors, and field data, implemented in generated_nodes/gen_VTKReaders.py\",1\n461,VTKGENERICENSIGHTREADER,\"A VTK reader designed to handle EnSight data format, supporting properties like time values and file paths, located in generated_nodes/gen_VTKReaders.py\",1\n462,VTKGEOJSONREADER,\"A VTK reader specialized for parsing GeoJSON data, supporting options like polygon triangulation and string input modes, defined in generated_nodes/gen_VTKReaders.py\",1\n468,VTKHDRREADERTYPE,\"A VTK reader class identified by bl_idname 'VTKHDRReaderType', defined in the module 'generated_nodes/gen_VTKReaders.py', used for reading HDR file formats with various configurable properties such as file naming, data origin, and scalar components\",1\n469,VTKIOSSREADERTYPE,\"A VTK reader class identified by bl_idname 'VTKIOSSReaderType', defined in the module 'generated_nodes/gen_VTKReaders.py', designed for reading IOSS database files with properties related to displacements, global fields, and file scanning\",1\n470,VTKISIREADERTYPE,\"A VTK reader class identified by bl_idname 'VTKISIReaderType', defined in the module 'generated_nodes/gen_VTKReaders.py', used for reading ISI-formatted files with properties like delimiter, filename, and maximum records\",1\n471,VTKIMAGEREADERTYPE,\"A VTK reader class identified by bl_idname 'VTKImageReaderType', defined in the module 'generated_nodes/gen_VTKReaders.py', used for reading image data with extensive properties for file handling, data layout, and scalar configuration\",1\n472,VTKIMAGEREADER2,\"VTKImageReader2 is a software component or class defined in the VTK (Visualization Toolkit) framework used for reading image data with various configurable properties such as file name, data origin, and spacing\",1\n473,VTKJPEGREADER,\"VTKJPEGReader is a specialized VTK reader class designed to load JPEG image files, inheriting properties like file name, byte order, and data spacing from the VTK reader infrastructure\",1\n474,VTKLSDYNAREADER,\"VTKLSDynaReader is a VTK reader class tailored for importing LS-DYNA simulation output data, supporting properties like database directory, time steps, and mesh deformation settings\",1\n475,VTKMCUBESREADER,\"VTKMCubesReader is a VTK class for reading data generated by the marching cubes algorithm, with properties controlling normal flipping, file names, and byte order\",1\n476,VTKMOTIONFXCFGREADER,\"A software component or class labeled as vtkMotionFXCFGReader, part of the VTK (Visualization Toolkit) framework, with defined properties and connections used for reading configuration files related to motion effects\",1\n477,VTKMULTIBLOCKPLOT3DREADER,\"A VTK reader class named vtkMultiBlockPLOT3DReader designed to handle PLOT3D file formats, with numerous properties controlling data reading behavior including precision, geometry, and file paths\",1\n478,VTKMULTINEWICKTREEREADER,\"A VTK reader component called vtkMultiNewickTreeReader used for parsing Newick tree format files, supporting various data fields like scalars, vectors, and tensors\",1\n479,VTKNIFTIIMAGEREADER,\"A VTK class named vtkNIFTIImageReader for reading NIFTI medical imaging files, with properties related to file structure, byte order, and image dimensions\",1\n480,VTKPCHACOREADER,A VTK reader module defined in generated_nodes/gen_VTKReaders.py used for reading Chaco graph files with properties related to generating weight arrays and global IDs,1\n481,VTKPDBREADER,A VTK reader module defined in generated_nodes/gen_VTKReaders.py used for reading Protein Data Bank (PDB) files with properties for scaling and file input,1\n482,VTKPDATASETREADER,A VTK reader module defined in generated_nodes/gen_VTKReaders.py used for reading parallel dataset files with basic FileName and ObjectName properties,1\n483,VTKPEXODUSIIREADER,\"A VTK reader module defined in generated_nodes/gen_VTKReaders.py used for reading Exodus II simulation data with options for displacement, mode shapes, and ID array generation\",1\n484,VTKSLACREADER,\"A software component or class in the VTK (Visualization Toolkit) library used for reading SLAC files, defined in the module generated_nodes/gen_VTKReaders.py\",1\n485,VTKSLCREADER,\"A software component or class in the VTK library used for reading SLC files, defined in the module generated_nodes/gen_VTKReaders.py\",1\n486,VTKSQLITETOTABLEREADER,\"A software component or class in the VTK library used for reading SQLite data into table format, defined in the module generated_nodes/gen_VTKReaders.py\",1\n487,VTKSTLREADER,\"A software component or class in the VTK library used for reading STL (stereolithography) files, defined in the module generated_nodes/gen_VTKReaders.py\",1\n488,VTKSEGYREADER,\"A software component or class in the VTK library used for reading SegY seismic data files, defined in the module generated_nodes/gen_VTKReaders.py\",1\n489,VTKSIMPLEPOINTSREADER,\"A software component or class in the VTK library used for reading simple point data files, defined in the module generated_nodes/gen_VTKReaders.py\",1\n490,VTKSIMPLEPOINTSREADERTYPE,\"A software component defined in the VTK (Visualization Toolkit) library used for reading simple point data, implemented in the module generated_nodes/gen_VTKReaders.py\",1\n491,VTKSTRUCTUREDGRIDREADERTYPE,\"A software component in the VTK library designed to read structured grid data with support for various data arrays such as scalars, vectors, tensors, and field data, implemented in generated_nodes/gen_VTKReaders.py\",1\n492,VTKSTRUCTUREDPOINTSREADERTYPE,\"A VTK reader class for structured points data, supporting multiple data types and properties, implemented in generated_nodes/gen_VTKReaders.py\",1\n493,VTKTGAREADERTYPE,\"A VTK reader specialized for TGA (Targa) image files, with properties for byte order, data origin, spacing, and file handling, implemented in generated_nodes/gen_VTKReaders.py\",1\n494,VTKTIFFREADER,\"A VTK reader class used for reading TIFF files, defined in the module generated_nodes/gen_VTKReaders.py with various properties such as file name, origin, and spacing specifications\",1\n495,VTKTRUCHASREADER,\"A VTK reader class for TRUCHAS data files, defined in generated_nodes/gen_VTKReaders.py with properties including file name and object name\",1\n496,VTKTABLEREADER,\"A VTK reader class designed to read table data, located in generated_nodes/gen_VTKReaders.py, supporting numerous read options and data field configurations\",1\n497,VTKTECPLOTREADER,\"A VTK reader class for Tecplot data, defined in generated_nodes/gen_VTKReaders.py with minimal properties including object name\",1\n498,VTKTECPLOTTABLEREADER,\"A VTK reader class for Tecplot table data, part of the generated VTK readers module, with properties related to data generation\",1\n499,VTKVOLUME16READER,\"VTKVolume16Reader is a software component defined in the VTK library used for reading 16-bit volume data, with properties such as file pattern, byte order, and data dimensions\",1\n500,VTKWINDBLADEREADER,\"VTKWindBladeReader is a VTK-based software reader designed to process wind blade simulation data, configurable via filename and subextent parameters\",1\n501,VTKXGMLREADER,\"VTKXGMLReader is a VTK software module for reading XGML (eXtensible Graph Markup and Modeling Language) formatted files, identified by filename and object name\",1\n502,VTKXMLGENERICDATAOBJECTREADER,\"VTKXMLGenericDataObjectReader is a VTK reader capable of handling generic XML-based data objects, supporting time steps, input strings, and various file-based properties\",1\n503,VTKXMLHIERARCHICALBOXDATAREADER,\"VTKXMLHierarchicalBoxDataReader is a VTK reader specialized for hierarchical box datasets in XML format, with support for multi-resolution and time-varying data\",1\n504,VTKXMLHIERARCHICALDATAREADER,\"VTKXMLHierarchicalDataReader is a VTK reader class designed to handle hierarchical datasets stored in XML format. It is part of the broader VTK (Visualization Toolkit) readers infrastructure, specifically implemented in the file generated_nodes/gen_VTKReaders.py. This component enables the reading and processing of complex, multi-resolution or multi-block data structures commonly used in scientific visualization. Key properties of VTKXMLHierarchicalDataReader include support for file input—allowing it to load hierarchical data from specified XML-based files—and configuration of time steps, which facilitates the handling of time-varying datasets. By integrating into VTK’s modular architecture, VTKXMLHierarchicalDataReader provides a standardized interface for applications requiring access to hierarchical data representations, ensuring compatibility with VTK’s pipeline and data processing workflows.\",1\n505,VTKXMLHYPERTREEGRIDREADER,A VTK reader class for hyper tree grid data defined in generated_nodes/gen_VTKReaders.py with properties for reading structured hierarchical datasets,1\n506,VTKXMLMULTIBLOCKDATAREADER,A VTK reader class for multi-block data defined in generated_nodes/gen_VTKReaders.py with configuration options for piece distribution and time steps,1\n507,VTKXMLMULTIGROUPDATAREADER,A VTK reader class for multi-group data defined in generated_nodes/gen_VTKReaders.py with properties for file input and temporal data handling,1\n508,VTKXMLPHYPERTREEGRIDREADER,\"VTKXMLPHYPERTREEGRIDREADER is a VTK reader class defined in the file generated_nodes/gen_VTKReaders.py, designed to read XML-based parallel hyper tree grid data. It appears to be an implementation intended for handling parallel datasets structured as hyper tree grids, which are hierarchical, adaptive-mesh representations commonly used in scientific visualization and simulation workflows. The name suggests it is the parallel counterpart to a standard hyper tree grid reader, extending functionality to support distributed or partitioned data stored in XML format—a common serialization method in the Visualization Toolkit (VTK) ecosystem. Although the class is referenced in code generation contexts, one description notes that it may be an incomplete or placeholder name appearing in documentation or source text, possibly indicating that the implementation is either under development, not fully integrated, or derived automatically through code generation scripts. Despite this uncertainty, its naming convention aligns with VTK’s standardized reader class patterns, where prefixes like “VTKXML” denote XML-based I/O, and terms like “PHyperTreeGrid” imply parallel hyper tree grid support. Taken together, VTKXMLPHYPERTREEGRIDREADER is best understood as a specialized, parallel-capable reader class within VTK’s infrastructure for loading hierarchical, adaptive-resolution volumetric data from XML files, though its current completeness or functional maturity may be limited or context-dependent.\",1\n509,VTKXMLPIMAGEDATAREADER,A VTK reader class defined in generated_nodes/gen_VTKReaders.py used for reading XML-based parallel image data,1\n510,VTKXMLPPOLYDATAREADER,A VTK reader class defined in generated_nodes/gen_VTKReaders.py used for reading XML-based parallel polygonal data,1\n511,VTKXMLPRECTILINEARGRIDREADER,A VTK reader class defined in generated_nodes/gen_VTKReaders.py used for reading XML-based parallel rectilinear grid data,1\n512,VTKXMLPSTRUCTUREDGRIDREADER,A VTK reader class defined in generated_nodes/gen_VTKReaders.py used for reading XML-based parallel structured grid data,1\n513,VTKXMLPTABLEREADER,A VTK reader class defined in generated_nodes/gen_VTKReaders.py used for reading XML-based parallel table data,1\n\n\n-----Relationships-----\nhuman_readable_id,source,target,description,combined_degree\n453,VTKAMREXGRIDREADER,GENERATED_NODES/GEN_VTKREADERS.PY,VTKAMReXGridReader is defined in the module generated_nodes/gen_VTKReaders.py,65\n454,VTKAMREXPARTICLESREADER,GENERATED_NODES/GEN_VTKREADERS.PY,VTKAMReXParticlesReader is defined in the module generated_nodes/gen_VTKReaders.py,65\n455,VTKAVSUCDREADER,GENERATED_NODES/GEN_VTKREADERS.PY,VTKAVSucdReader is defined in the module generated_nodes/gen_VTKReaders.py,65\n456,VTKARRAYDATAREADER,GENERATED_NODES/GEN_VTKREADERS.PY,VTKArrayDataReader is defined in the module generated_nodes/gen_VTKReaders.py,65\n457,VTKARRAYREADER,GENERATED_NODES/GEN_VTKREADERS.PY,VTKArrayReader is defined in the module generated_nodes/gen_VTKReaders.py,65\n458,VTKBMPREADER,GENERATED_NODES/GEN_VTKREADERS.PY,VTKBMPReader is defined in the module generated_nodes/gen_VTKReaders.py,65\n459,VTKFACETREADER,GENERATED_NODES/GEN_VTKREADERS.PY,VTKFacetReader is implemented in the module generated_nodes/gen_VTKReaders.py,65\n460,VTKFIXEDWIDTHTEXTREADER,GENERATED_NODES/GEN_VTKREADERS.PY,VTKFixedWidthTextReader is implemented in the module generated_nodes/gen_VTKReaders.py,65\n461,VTKGAMBITREADER,GENERATED_NODES/GEN_VTKREADERS.PY,VTKGAMBITReader is implemented in the module generated_nodes/gen_VTKReaders.py,65\n462,VTKGESIGNAREADER,GENERATED_NODES/GEN_VTKREADERS.PY,VTKGESignaReader is implemented in the module generated_nodes/gen_VTKReaders.py,65\n463,VTKGLTFREADER,GENERATED_NODES/GEN_VTKREADERS.PY,VTKGLTFReader is implemented in the module generated_nodes/gen_VTKReaders.py,65\n464,VTKGAUSSIANCUBEREADER,GENERATED_NODES/GEN_VTKREADERS.PY,VTKGaussianCubeReader is defined in the module generated_nodes/gen_VTKReaders.py,65\n465,VTKGAUSSIANCUBEREADER2,GENERATED_NODES/GEN_VTKREADERS.PY,VTKGaussianCubeReader2 is defined in the module generated_nodes/gen_VTKReaders.py,65\n466,VTKGENERICDATAOBJECTREADER,GENERATED_NODES/GEN_VTKREADERS.PY,VTKGenericDataObjectReader is defined in the module generated_nodes/gen_VTKReaders.py,65\n467,VTKGENERICENSIGHTREADER,GENERATED_NODES/GEN_VTKREADERS.PY,VTKGenericEnSightReader is defined in the module generated_nodes/gen_VTKReaders.py,65\n468,VTKGEOJSONREADER,GENERATED_NODES/GEN_VTKREADERS.PY,VTKGeoJSONReader is defined in the module generated_nodes/gen_VTKReaders.py,65\n469,VTKHDRREADERTYPE,GENERATED_NODES/GEN_VTKREADERS.PY,VTKHDRReaderType is defined in the module generated_nodes/gen_VTKReaders.py,65\n470,VTKIOSSREADERTYPE,GENERATED_NODES/GEN_VTKREADERS.PY,VTKIOSSReaderType is defined in the module generated_nodes/gen_VTKReaders.py,65\n471,VTKISIREADERTYPE,GENERATED_NODES/GEN_VTKREADERS.PY,VTKISIReaderType is defined in the module generated_nodes/gen_VTKReaders.py,65\n472,VTKIMAGEREADERTYPE,GENERATED_NODES/GEN_VTKREADERS.PY,VTKImageReaderType is defined in the module generated_nodes/gen_VTKReaders.py,65\n473,VTKIMAGEREADER2,GENERATED_NODES/GEN_VTKREADERS.PY,VTKImageReader2 is defined in the module generated_nodes/gen_VTKReaders.py,65\n474,VTKJPEGREADER,GENERATED_NODES/GEN_VTKREADERS.PY,VTKJPEGReader is defined in the module generated_nodes/gen_VTKReaders.py,65\n475,VTKLSDYNAREADER,GENERATED_NODES/GEN_VTKREADERS.PY,VTKLSDynaReader is defined in the module generated_nodes/gen_VTKReaders.py,65\n476,VTKMCUBESREADER,GENERATED_NODES/GEN_VTKREADERS.PY,VTKMCubesReader is defined in the module generated_nodes/gen_VTKReaders.py,65\n477,VTKMOTIONFXCFGREADER,GENERATED_NODES/GEN_VTKREADERS.PY,vtkMotionFXCFGReader is defined in the module generated_nodes/gen_VTKReaders.py,65\n478,VTKMULTIBLOCKPLOT3DREADER,GENERATED_NODES/GEN_VTKREADERS.PY,vtkMultiBlockPLOT3DReader is implemented in the module generated_nodes/gen_VTKReaders.py,65\n479,VTKMULTINEWICKTREEREADER,GENERATED_NODES/GEN_VTKREADERS.PY,vtkMultiNewickTreeReader is part of the generated_nodes/gen_VTKReaders.py module,65\n480,VTKNIFTIIMAGEREADER,GENERATED_NODES/GEN_VTKREADERS.PY,vtkNIFTIImageReader is located in the generated_nodes/gen_VTKReaders.py source file,65\n482,VTKPCHACOREADER,GENERATED_NODES/GEN_VTKREADERS.PY,vtkPChacoReader is implemented in the module generated_nodes/gen_VTKReaders.py,65\n483,VTKPDBREADER,GENERATED_NODES/GEN_VTKREADERS.PY,vtkPDBReader is implemented in the module generated_nodes/gen_VTKReaders.py,65\n484,VTKPDATASETREADER,GENERATED_NODES/GEN_VTKREADERS.PY,vtkPDataSetReader is implemented in the module generated_nodes/gen_VTKReaders.py,65\n485,VTKPEXODUSIIREADER,GENERATED_NODES/GEN_VTKREADERS.PY,vtkPExodusIIReader is implemented in the module generated_nodes/gen_VTKReaders.py,65\n486,VTKSLACREADER,GENERATED_NODES/GEN_VTKREADERS.PY,VTKSLACReader is defined in the module generated_nodes/gen_VTKReaders.py,65\n487,VTKSLCREADER,GENERATED_NODES/GEN_VTKREADERS.PY,VTKSLCReader is defined in the module generated_nodes/gen_VTKReaders.py,65\n488,VTKSQLITETOTABLEREADER,GENERATED_NODES/GEN_VTKREADERS.PY,VTKSQLiteToTableReader is defined in the module generated_nodes/gen_VTKReaders.py,65\n489,VTKSTLREADER,GENERATED_NODES/GEN_VTKREADERS.PY,VTKSTLReader is defined in the module generated_nodes/gen_VTKReaders.py,65\n490,VTKSEGYREADER,GENERATED_NODES/GEN_VTKREADERS.PY,VTKSegYReader is defined in the module generated_nodes/gen_VTKReaders.py,65\n491,VTKSIMPLEPOINTSREADER,GENERATED_NODES/GEN_VTKREADERS.PY,VTKSimplePointsReader is defined in the module generated_nodes/gen_VTKReaders.py,65\n492,VTKSIMPLEPOINTSREADERTYPE,GENERATED_NODES/GEN_VTKREADERS.PY,VTKSimplePointsReaderType is defined within the module generated_nodes/gen_VTKReaders.py,65\n493,VTKSTRUCTUREDGRIDREADERTYPE,GENERATED_NODES/GEN_VTKREADERS.PY,VTKStructuredGridReaderType is defined within the module generated_nodes/gen_VTKReaders.py,65\n494,VTKSTRUCTUREDPOINTSREADERTYPE,GENERATED_NODES/GEN_VTKREADERS.PY,VTKStructuredPointsReaderType is defined within the module generated_nodes/gen_VTKReaders.py,65\n495,VTKTGAREADERTYPE,GENERATED_NODES/GEN_VTKREADERS.PY,VTKTGAReaderType is defined within the module generated_nodes/gen_VTKReaders.py,65\n496,VTKTIFFREADER,GENERATED_NODES/GEN_VTKREADERS.PY,VTKTIFFReader is implemented in the module generated_nodes/gen_VTKReaders.py,65\n497,VTKTRUCHASREADER,GENERATED_NODES/GEN_VTKREADERS.PY,VTKTRUCHASReader is implemented in the module generated_nodes/gen_VTKReaders.py,65\n498,VTKTABLEREADER,GENERATED_NODES/GEN_VTKREADERS.PY,VTKTableReader is implemented in the module generated_nodes/gen_VTKReaders.py,65\n499,VTKTECPLOTREADER,GENERATED_NODES/GEN_VTKREADERS.PY,VTKTecplotReader is implemented in the module generated_nodes/gen_VTKReaders.py,65\n500,VTKTECPLOTTABLEREADER,GENERATED_NODES/GEN_VTKREADERS.PY,VTKTecplotTableReader is implemented in the module generated_nodes/gen_VTKReaders.py,65\n501,VTKVOLUME16READER,GENERATED_NODES/GEN_VTKREADERS.PY,VTKVolume16Reader is defined in the gen_VTKReaders.py module,65\n502,VTKWINDBLADEREADER,GENERATED_NODES/GEN_VTKREADERS.PY,VTKWindBladeReader is defined in the gen_VTKReaders.py module,65\n503,VTKXGMLREADER,GENERATED_NODES/GEN_VTKREADERS.PY,VTKXGMLReader is defined in the gen_VTKReaders.py module,65\n504,VTKXMLGENERICDATAOBJECTREADER,GENERATED_NODES/GEN_VTKREADERS.PY,VTKXMLGenericDataObjectReader is defined in the gen_VTKReaders.py module,65\n505,VTKXMLHIERARCHICALBOXDATAREADER,GENERATED_NODES/GEN_VTKREADERS.PY,VTKXMLHierarchicalBoxDataReader is defined in the gen_VTKReaders.py module,65\n506,VTKXMLHIERARCHICALDATAREADER,GENERATED_NODES/GEN_VTKREADERS.PY,\"VTKXMLHierarchicalDataReader is a class defined in the module generated_nodes/gen_VTKReaders.py. This module, named gen_VTKReaders.py, resides within the generated_nodes directory and is responsible for programmatically generating or defining VTK reader classes, including VTKXMLHierarchicalDataReader. The class serves as a reader for hierarchical data stored in VTK’s XML format, enabling the parsing and loading of complex, multi-resolution, or multi-block datasets commonly used in scientific visualization workflows. Its placement within the generated_nodes subdirectory suggests that it may be auto-generated as part of a code generation pipeline, likely to maintain consistency with VTK’s extensive file format support while reducing manual implementation overhead. Both descriptions agree on the class name and its association with the gen_VTKReaders.py module; the only difference lies in the level of path detail—where one simply names the module and the other provides its full relative path (generated_nodes/gen_VTKReaders.py). These are not contradictory but rather complementary, with the latter offering a more precise location. Therefore, the comprehensive summary incorporates the full path to accurately reflect the module’s location in the codebase.\",65\n507,VTKXMLHYPERTREEGRIDREADER,GENERATED_NODES/GEN_VTKREADERS.PY,VTKXMLHyperTreeGridReader is defined in the module generated_nodes/gen_VTKReaders.py,65\n509,VTKXMLMULTIBLOCKDATAREADER,GENERATED_NODES/GEN_VTKREADERS.PY,VTKXMLMultiBlockDataReader is defined in the module generated_nodes/gen_VTKReaders.py,65\n510,VTKXMLMULTIGROUPDATAREADER,GENERATED_NODES/GEN_VTKREADERS.PY,VTKXMLMultiGroupDataReader is defined in the module generated_nodes/gen_VTKReaders.py,65\n511,VTKXMLPHYPERTREEGRIDREADER,GENERATED_NODES/GEN_VTKREADERS.PY,VTKXMLPHYPERTREEGRIDREADER is implemented in the module generated_nodes/gen_VTKReaders.py,65\n512,VTKXMLPIMAGEDATAREADER,GENERATED_NODES/GEN_VTKREADERS.PY,VTKXMLPIMAGEDATAREADER is implemented in the module generated_nodes/gen_VTKReaders.py,65\n513,VTKXMLPPOLYDATAREADER,GENERATED_NODES/GEN_VTKREADERS.PY,VTKXMLPPOLYDATAREADER is implemented in the module generated_nodes/gen_VTKReaders.py,65\n514,VTKXMLPRECTILINEARGRIDREADER,GENERATED_NODES/GEN_VTKREADERS.PY,VTKXMLPRECTILINEARGRIDREADER is implemented in the module generated_nodes/gen_VTKReaders.py,65\n515,VTKXMLPSTRUCTUREDGRIDREADER,GENERATED_NODES/GEN_VTKREADERS.PY,VTKXMLPSTRUCTUREDGRIDREADER is implemented in the module generated_nodes/gen_VTKReaders.py,65\n516,VTKXMLPTABLEREADER,GENERATED_NODES/GEN_VTKREADERS.PY,VTKXMLPTABLEREADER is implemented in the module generated_nodes/gen_VTKReaders.py,65\n\n\nThe report should include the following sections:\n\n- TITLE: community's name that represents its key entities - title should be short but specific. When possible, include representative named entities in the title.\n- SUMMARY: An executive summary of the community's overall structure, how its entities are related to each other, and significant information associated with its entities.\n- IMPACT SEVERITY RATING: a float score between 0-10 that represents the severity of IMPACT posed by entities within the community.  IMPACT is the scored importance of a community.\n- RATING EXPLANATION: Give a single sentence explanation of the IMPACT severity rating.\n- DETAILED FINDINGS: A list of 5-10 key insights about the community. Each insight should have a short summary followed by multiple paragraphs of explanatory text grounded according to the grounding rules below. Be comprehensive.\n\nReturn output as a well-formed JSON-formatted string with the following format:\n    {\n        \"title\": <report_title>,\n        \"summary\": <executive_summary>,\n        \"rating\": <impact_severity_rating>,\n        \"rating_explanation\": <rating_explanation>,\n        \"findings\": [\n            {\n                \"summary\":<insight_1_summary>,\n                \"explanation\": <insight_1_explanation>\n            },\n            {\n                \"summary\":<insight_2_summary>,\n                \"explanation\": <insight_2_explanation>\n            }\n        ]\n    }\n\n# Grounding Rules\n\nPoints supported by data should list their data references as follows:\n\n\"This is an example sentence supported by multiple data references [Data: <dataset name> (record ids); <dataset name> (record ids)].\"\n\nDo not list more than 5 record ids in a single reference. Instead, list the top 5 most relevant record ids and add \"+more\" to indicate that there are more.\n\nFor example:\n\"Person X is the owner of Company Y and subject to many allegations of wrongdoing [Data: Reports (1), Entities (5, 7); Relationships (23); Claims (7, 2, 34, 64, 46, +more)].\"\n\nwhere 1, 5, 7, 23, 2, 34, 46, and 64 represent the id (not the index) of the relevant data record.\n\nDo not include information where the supporting evidence for it is not provided.\n\nLimit the total report length to 2000 words.\n\nOutput:", "role": "user"}], "parameters": {"model": "qwen3-max", "frequency_penalty": 0.0, "max_tokens": null, "n": 1, "presence_penalty": 0.0, "temperature": 0.0, "top_p": 1.0, "response_format": {"type": "json_object"}}}, "key": "chat_create_community_report_4e8a31703e620634010dfd62df3b444935b32919add022a1f9a342d111fa9d20_v2"}